$# LS-DYNA Keyword file created by LS-PrePost(R) V4.8.12 - 10Mar2021
$# Created on Mar-31-2021 (10:56:51)
*KEYWORD
*MAT_ELASTIC_TITLE
Skin
         7  1.20E-6 1.67000E-2      0.47       0.0       0.0       0.0  
*SECTION_SOLID_TITLE
Solid
         1         1         0                                       0          
*MAT_OGDEN_RUBBER_TITLE
Grey Matter
         51.04000E-6   0.49999         0         6       0.0       0.0       0.0
5.38000E-8-1.2040E-7       0.0       0.0       0.0       0.0       0.0       0.0
      10.1     -12.9       0.0       0.0       0.0       0.0       0.0       0.0
3.20000E-4    1000.0         0
7.80000E-5     100.0         0
6.20000E-6      10.0         0
8.00000E-6       1.0         0
1.00000E-7       0.1         0
3.00000E-6      0.01         0
*MAT_OGDEN_RUBBER_TITLE
White Matter
         41.04000E-6   0.49999         0         6       0.0       0.0       0.0
5.38000E-8-1.2040E-7       0.0       0.0       0.0       0.0       0.0       0.0
      10.1     -12.9       0.0       0.0       0.0       0.0       0.0       0.0
3.20000E-4    1000.0         0
7.80000E-5     100.0         0
6.20000E-6      10.0         0
8.00000E-6       1.0         0
1.00000E-7       0.1         0
3.00000E-6      0.01         0
*MAT_OGDEN_RUBBER_TITLE
CSF
         31.04000E-6    0.4998         0         6       0.0       0.0       0.0
2.00000E-5       0.0       0.0       0.0       0.0       0.0       0.0       0.0
       2.0       0.0       0.0       0.0       0.0       0.0       0.0       0.0
*MAT_OGDEN_RUBBER_TITLE
Brain Stem
         61.04000E-6  0.499982         0         6       0.0       0.0       0.0
1.58000E-8-1.0680E-7       0.0       0.0       0.0       0.0       0.0       0.0
      28.1     -29.5       0.0       0.0       0.0       0.0       0.0       0.0
5.12000E-4    1000.0         0
1.24800E-4     100.0         0
9.92000E-6      10.0         0
1.28000E-5       1.0         0
1.60000E-7       0.1         0
4.80000E-6      0.01         0
*SECTION_SHELL_TITLE
Meninges
         3         2       1.0         2       1.0         0         0         1
      0.27      0.27      0.27      0.27       0.0       0.0       0.0         0
$
$------MATERIAL MODELS---------
$
*MAT_OGDEN_RUBBER_TITLE
Falx/Dura/Tent
        121.13000E-6      0.45         0         6       0.0       0.0       0.0
2.55000E-5       0.0       0.0       0.0       0.0       0.0       0.0       0.0
      32.9       0.0       0.0       0.0       0.0       0.0       0.0       0.0
3.28000E-4       0.2         0
2.91000E-4   0.02273         0
1.61000E-4   0.00211         0
1.67000E-42.51000E-4         0
*MAT_OGDEN_RUBBER_TITLE
Pia
        151.13000E-6      0.45         0         6       0.0       0.0       0.0
2.51500E-6       0.0       0.0       0.0       0.0       0.0       0.0       0.0
      32.9       0.0       0.0       0.0       0.0       0.0       0.0       0.0
3.23500E-5       0.2         0
2.87100E-5   0.02273         0
1.60000E-5   0.00211         0
1.64400E-52.51000E-4         0
*HOURGLASS
         3         55.00000E-5         0       1.5      0.06       0.1       0.1
*HOURGLASS
         4         51.00000E-4         0       1.5      0.06       0.1       0.1
*HOURGLASS
        12         5     0.005         0       1.5      0.06       0.1       0.1
*MAT_VISCOELASTIC_TITLE
CSF
  500000031.04000E-6    0.02195.28000E-45.00000E-4     0.005
*SECTION_SOLID_TITLE
Rigid Skull
         2         1         0                                       0          
*END
